36
Coordinates from ORCA-job Complejo1
  Fe  1.40358533711824      4.09369271968703      3.46766845632202
  P   3.17250409978182      5.23025401986335      3.16184248176420
  P   0.33067901534663      2.27162449080337      3.67514369201221
  P   2.01851984651843      3.85409797617262      5.49035562782494
  C   4.24487651329900      4.83250573043112      1.74682029598669
  C   3.19408432652932      7.06079449816237      3.10145712449489
  C   3.78496333016509      4.25068828164796      5.62289577320751
  C   0.94365521155714      1.43380617948807      5.18385856368445
  C   1.35568508470877      4.74322361629958      6.94832992367115
  C   1.74797949024395      2.13009267377594      5.99079349026994
  C   0.53912480748469      0.97519741363231      2.41555561527949
  C   -1.47924386291137      2.19545754578836      3.94464210293160
  C   4.28758815069613      4.91654933321688      4.58038370728998
  N   0.11662640807159      5.34668656044065      3.56578824619314
  N   -0.67277224820766      6.11440498528680      3.62051632801615
  H   1.22253376190468      4.00753071141809      1.97536674414679
  H   2.44796828415260      3.04576509989559      3.21056825689562
  H   1.49786360224423      5.81680114122129      6.80958451909315
  H   1.83812531147245      4.44512830725296      7.88245992428895
  H   0.28453944705585      4.54871845516161      7.03156580754020
  H   0.10333620073833      1.32662936580931      1.47847109227242
  H   0.06424912182003      0.03325141142552      2.70117677088128
  H   1.60380504409282      0.81288683926675      2.24555159869504
  H   3.71445856207898      5.08366407868784      0.82637069764373
  H   4.43628353981359      3.75917771392344      1.73692288504915
  H   5.19311392534372      5.37495279030644      1.77390784172193
  H   2.64929001991753      7.38981067738245      2.21339653878566
  H   4.20504925106653      7.47409227645882      3.06377681919799
  H   2.68009844100333      7.46436556319609      3.97575953361644
  H   -1.98379975508311      2.56900746420066      3.05041348236037
  H   -1.75566783602592      2.84381628348605      4.77814961363358
  H   -1.83792427652737      1.18360466987660      4.15003602903087
  H   5.32196927751257      5.26297127187522      4.57160032087339
  H   4.37593488447463      4.02968179427570      6.51121426030785
  H   0.65886466238549      0.40596211648568      5.41294005257023
  H   2.14932302015722      1.71172594369718      6.91329578244672
