37
Coordinates from ORCA-job Intermediario1
  Fe  1.17502151758657      4.38564895104736      2.82723312949155
  P   2.92012670937459      5.69403672230971      2.57557823222533
  P   0.10008910179463      2.47483863846622      2.95551569219298
  P   2.18287421552902      3.71514103172198      4.63942493612491
  C   3.68745685586654      5.73975235480391      0.93417366125226
  C   2.83369553726622      7.45339022471236      3.02635227502360
  C   3.92932666312176      4.14256045829121      4.55086836555042
  C   1.03557866829194      1.38815915721563      4.06395583883098
  C   1.70629909640731      4.31697923496319      6.28897086207215
  C   2.00199751100108      1.93138566823521      4.80316424871905
  C   -0.04408790933352      1.50710743555176      1.43024161658992
  C   -1.58203094055618      2.40589936601057      3.64260104109223
  C   4.24336724711940      5.06470435559631      3.64167446954507
  N   -0.02325809482231      5.53625286659835      3.67045635601427
  N   -0.72254101401853      6.21007879688183      4.17714339144992
  H   2.12906369876458      3.47371459828294      2.14145390741655
  H   1.83658582020059      5.39954133398649      6.34285346164208
  H   2.31054193028952      3.85880264244050      7.07463210570773
  H   0.65772815279598      4.08152999533551      6.48045699726839
  H   -0.70062126670724      2.02238447820183      0.72564407226719
  H   -0.45911802853488      0.51531412284224      1.62170106537940
  H   0.93783127100891      1.40263754472271      0.96758221716350
  H   3.00986326053362      6.21279951359812      0.21996606807255
  H   3.88967310111546      4.72425235130698      0.59192419621240
  H   4.62038742850826      6.30706474858372      0.94669984760342
  H   2.12371114675286      7.96293283011662      2.37084136904189
  H   3.80392492024799      7.94521052826685      2.92856414552721
  H   2.48806748830698      7.56906235263275      4.05497645715658
  H   -2.26594702486376      2.95409073617345      2.99055955401366
  H   -1.60812470330063      2.87233308907141      4.62872663599173
  H   -1.94348952350052      1.37932613694622      3.73349295367968
  H   5.25735517567121      5.45138088745004      3.54128503548754
  H   4.66138734284703      3.72998848123508      5.24312825587387
  H   0.78812431094222      0.32884817419801      4.12910030967802
  H   2.59171835950777      1.35295618455006      5.51233948681901
  H   0.89983532375753      5.01928929437031      1.40056976962863
  H   0.35074665102790      4.38909471328226      1.47801797219406
