6
Coordinates from ORCA-job MECP
  Fe  -0.57458105676818     -0.34499010706556     -1.14211239698030
  P   -2.48504673363630     -1.06098707401665     -0.36054243892264
  P   -0.45812765696835      1.90192228706152     -1.09626840360444
  C   0.84211503060052      2.77907286793324     -2.05069498824137
  C   -1.89783815926322      2.96655030494812     -1.48745948631167
  C   -3.03094888490964     -2.77765426597526     -0.72017353270012
  C   -4.08720199598419     -0.19299079846081     -0.60387858527912
  C   0.18507269332964      1.55214531703229      1.52303141012118
  C   -2.44772181414531     -1.12114566332237      1.46277439723741
  C   -1.33090546063506     -0.74039744719109      2.08282839772293
  C   1.47577105914654     -0.92171309416704      1.93177912596735
  C   -0.05304300742968      2.46934556284186      0.58470124736522
  P   0.05305623373504     -0.19601002490500      1.03139979053614
  N   0.44378094186698     -1.86521082645568     -1.51945325834551
  N   1.06305065468597     -2.76495423726926     -1.69952675625115
  H   0.65088752661063      2.65329517807781     -3.11902413770429
  H   1.81207146535289      2.32908012875057     -1.83243063831499
  H   0.88828207053657      3.84900221221769     -1.82740526661372
  H   -4.30390199274775     -0.13310964065454     -1.67300443552510
  H   -4.01167841870339      0.82641924000976     -0.22177853911924
  H   -4.92369012727355     -0.69228806304330     -0.10662151454224
  H   -3.25374963584860     -2.86705392119506     -1.78625282501303
  H   -3.91752239660432     -3.07701311208895     -0.15342518412025
  H   -2.21642962173216     -3.46869493167248     -0.49499987433834
  H   -3.32166595500215     -1.45499766282703      2.02470235887984
  H   -1.24639376532631     -0.75123578002399      3.17028935234913
  H   2.40475549114525     -0.55203630753064      1.49316453255937
  H   1.45899723164941     -2.00663625733101      1.80816086485294
  H   1.47527801991662     -0.69164500624810      3.00086915114817
  H   0.00304047880922      3.53614654026142      0.80769462438679
  H   0.44468324739256      1.83730895856416      2.54329857149530
  H   -2.20838275061514      2.78248920517881     -2.51855127436573
  H   -1.68342855349368      4.03289529341042     -1.37322978932683
  H   -2.73331768934176      2.70191906122487     -0.83809975608990
  H   -1.37377570101079     -0.55947446263425     -2.68608495135033
  H   -0.73408076733819     -0.09565347343450     -2.88556579156142
