67
Coordinates from ORCA-job TSA_OPTTS
  Fe  1.20262426181713      4.28436495783112      2.22772789426644
  P   2.44378888797201      6.02429873779945      2.52215166814797
  P   0.68615017161131      2.21162054731832      1.91992754852348
  P   1.91303017805058      3.64615610293699      4.15692852736390
  C   3.58021296575239      6.59195000060759      1.21705738576548
  C   1.73567547258390      7.61578467214845      3.07265152106930
  C   3.42033644275469      4.54704130844541      4.58007093032970
  C   1.60426473130055      1.21566860399187      3.14091557182134
  C   0.94453147111793      3.82559098830151      5.69494973740331
  C   2.21408524826552      1.86508726072368      4.13412760325876
  C   1.12612821281366      1.36393811616769      0.36852877216327
  C   -1.02095145035933      1.61030856198542      2.16396809584862
  C   3.61867829292182      5.65767055423773      3.86791553508607
  N   -0.39959409869358      4.94887582560389      2.74173740320607
  N   -1.37143741147997      5.34821600179053      3.07143325996654
  H   0.89718567110747      4.65199407479744      0.75897503647470
  H   2.52763394957000      3.75451991771662      1.72709874857360
  H   0.71905901578414      4.88004511035860      5.86569119139228
  H   1.47923383876714      3.44143113564189      6.56635279574620
  H   0.00201587161710      3.28258474259263      5.60139584317529
  H   0.54634408963513      1.78828898206245     -0.45299365086519
  H   0.91753540586220      0.29263301773792      0.41938390381923
  H   2.18931515985615      1.50105329671463      0.16631048131387
  H   3.00047646595248      6.94668689694708      0.36317007102179
  H   4.21029449511019      5.76124074538548      0.89741707436111
  H   4.21897752929132      7.40767713677456      1.56309454322857
  H   1.09651023007481      8.01837439228695      2.28320179071105
  H   2.50213675551520      8.35676925036313      3.31051228557791
  H   1.11398121359228      7.46198968281869      3.95638437934764
  H   -1.66900806522276      2.06516152365991      1.41163833723610
  H   -1.38830547085275      1.91235516052956      3.14642496181667
  H   -1.10047812742027      0.52366399631289      2.08313621961123
  H   4.44688848969114      6.33357310561898      4.08225001737999
  H   4.06601872639020      4.26123647268924      5.40894247886833
  H   1.63708977805651      0.12846564968900      3.06497730389481
  H   2.76710496862728      1.34851494108514      4.91705748245633
  H   0.88184345692408      7.56580688886508     -2.86335494345537
  O   1.42310544578650      4.39286396849028     -1.80648774268006
  C   2.79966627121717      4.11676925641892     -1.38622107989698
  C   3.40651431784321      3.04985959071033     -2.25527246967835
  H   3.35366065217541      5.05821732105185     -1.43308380595492
  H   2.71362739178769      3.83768402596628     -0.33010354075846
  H   4.42497439775308      2.86206459440712     -1.90893290070229
  H   2.85708544118208      2.10930253382293     -2.19011569019747
  H   3.47441509467381      3.34294124426603     -3.30533903677648
  C   1.14520770245562      5.46111969908672     -2.75442858561871
  C   1.18592425196601      6.82679189825817     -2.11950289784510
  H   1.87979828087258      5.34636374857424     -3.55539333029145
  H   0.16226696125578      5.23166753090079     -3.16769908724283
  H   0.49871959790868      6.90003604328938     -1.27421411177676
  H   2.18496916107965      7.10465220508377     -1.77937480220792
  H   -3.59951033000207      2.60212095131719     -1.20481682272037
  O   -1.12959828064997      3.98799356904968     -1.20574753142658
  C   -1.98987339385526      4.83744476539280     -0.46963495466441
  C   -2.76049832913134      5.83422378189628     -1.31383519336565
  H   -2.68381641910256      4.24742193446233      0.14535208121795
  H   -1.33314457528217      5.35950858421331      0.22985170901407
  H   -2.09771395794543      6.44692979768973     -1.93140437520988
  H   -3.49807251435902      5.36655551356935     -1.97010230076335
  H   -3.30871461852835      6.51130949260925     -0.65576209438990
  C   -1.71271502241901      3.13629004068934     -2.17148434870436
  C   -2.70366278395184      2.13224436803358     -1.61635988069356
  H   -2.18896388412047      3.72332163768514     -2.97179861383034
  H   -0.87837678511514      2.60187053018843     -2.63954044592435
  H   -3.03392937743768      1.47130174101262     -2.42019494808206
  H   -2.25700572162992      1.50675810092428     -0.84001066544059
  H   0.73025420121409      4.31111317039564     -1.08949033929608
