36
Coordinates from ORCA-job TSE_OPTTS
  Fe  12.29542457234069      5.09808052541515     11.40774322345259
  P   10.33780654962353      5.04483359188491     10.19631756968750
  P   12.51898381763786      2.96355406772865     10.66086176567010
  P   12.72485564894584      6.94144096945079     10.15627158995189
  N   11.58769073834550      5.37474367568921     13.12448117911844
  C   10.39953128039871      6.30174758817539      8.87672799843478
  C   8.58012266438604       5.20726145639928     10.70581558320867
  N   11.24841223555168      5.53884285208914     14.17575149252875
  C   11.43499916280778      7.14287648510167      8.88584404271105
  C   10.24532742639525      3.49224127960930      9.24526314142555
  N   14.36382163115583      5.11958181792304     12.44475584762099
  C   11.18888047908605      2.57828037997125      9.47762565123641
  C   12.42646623449918      1.51785010775255     11.77837167302777
  C   14.23115737317414      6.99631864755712      9.11126182602021
  N   15.45860978544596      5.06100751598384     12.46279161343308
  C   12.76583980120334      8.61934219272887     10.88480564475726
  C   13.99242551054099      2.52212308946928      9.66214940352753
  H   7.87302849946810       5.13459138767091      9.87468229688140
  H   8.44328161075235       6.17062903439991     11.20114725025369
  H   8.35046533023502       4.42545284327753     11.43261388479526
  H   12.85279675084377      9.40800676149716     10.13179956528575
  H   13.61366232056305      8.69173723165144     11.56952938911910
  H   11.85642932506105      8.77777299604161     11.46637368611047
  H   12.42179542645072      0.56531798029493     11.24068353904195
  H   11.52147353916297      1.59162738567000     12.38328361240053
  H   13.28148923120924      1.53563925686640     12.45748172497651
  H   14.10461973895739      3.23575851906519      8.84398804461221
  H   13.93353271397535      1.51411498852138      9.24269836025707
  H   14.88693667763958      2.58410390061639     10.28644429231595
  H   14.26321092803980      7.87749705294442      8.46481241421615
  H   14.27678379046296      6.10202633379945      8.48692600056037
  H   15.11769848048335      7.00475325526119      9.74970957326578
  H   9.43702429235786       3.29744298939816      8.53881170051575
  H   11.17855434407975      1.61354564090806      8.96699356918719
  H   9.61046313403286       6.39160540810479      8.12862705706300
  H   11.52296895468233      7.94116079107997      8.14662479332579
