36
Coordinates from ORCA-job TSG_OPTTS
  Fe  0.25772471881319     -0.39155896296561     -0.79785580278088
  P   -1.48381135545310     -1.36478331808613     -0.02149010417410
  P   0.70383521602517      1.68765267285182     -0.82627672559362
  P   0.87943259449949     -0.31428683391200      1.25536044518670
  C   -3.16364517969125     -0.74375656886682     -0.41788612822013
  C   -1.77536870502936     -3.16074677371624     -0.29849699125152
  C   -0.42213224500147     -0.85859824277978      2.39469860443123
  C   1.18975514021512      2.29121123166308      0.82324524721532
  C   2.32919854282189     -1.22573840730050      1.89907458783718
  C   1.26447095603652      1.37747540658317      1.78913830488010
  C   -0.55254576839350      2.94368523087247     -1.28391941985880
  C   2.11299315207537      2.31899585686809     -1.82334354616283
  C   -1.51222676304478     -1.33971767349555      1.79960079184501
  N   1.64479004786335     -1.35899474213619     -1.37321175921049
  N   2.51670537712246     -1.94735782270898     -1.72071622073014
  H   -0.32167158878418     -0.64885130515603     -2.22532249219255
  H   -0.65240140553885      0.13035575215299     -1.91279687438923
  H   2.18654660895062     -2.29500334062488      1.73147932483069
  H   2.48952302254245     -1.05461300780321      2.96635341482051
  H   3.22362767661632     -0.91462540286690      1.35564001079245
  H   -0.85443991048277      2.78737958167027     -2.32252520025501
  H   -0.18496329054732      3.96881437842848     -1.18332355952798
  H   -1.43665554246561      2.81626218965636     -0.65715883260067
  H   -3.31640094985009     -0.79940712628946     -1.49856251330295
  H   -3.24093441246513      0.30444209423418     -0.12499117823441
  H   -3.95782930515774     -1.31492081642055      0.07107515364040
  H   -1.91140280188261     -3.33571445736766     -1.36842855233437
  H   -2.65040994171713     -3.54606983100833      0.23316855694058
  H   -0.89144182309103     -3.71813156550885      0.01628919216780
  H   1.91163475047334      2.13003421668546     -2.88059943554407
  H   3.01691936512325      1.76782591885918     -1.55772934518341
  H   2.29392721002835      3.38937076279124     -1.68890730913648
  H   -2.36281949849142     -1.72465156432600      2.36324862853006
  H   -0.30545828825168     -0.81834051496653      3.47736629340763
  H   1.41581759918593      3.34379794343907      0.99778345155186
  H   1.55965679694621      1.61856504155028      2.81001998260612
